191
cid:0, pot:408.69009083461896
Pd -0.461656 5.747522 -0.314958
Pd 0.465644 -5.747378 0.309342
C 6.518644 -0.787978 0.398942
C 6.360544 -1.984878 0.471642
C 6.157144 -3.369878 0.621542
C 7.206444 -4.205078 0.964542
C 7.001744 -5.573578 1.174542
C 5.751444 -6.125178 1.062942
C 4.656044 -5.309078 0.708142
C 3.346044 -5.811078 0.597642
N 2.323644 -5.057778 0.251042
C 2.509744 -3.743578 -0.028258
C 3.736744 -3.152378 0.075642
C 4.853644 -3.919978 0.463242
H 8.196944 -3.790978 1.077342
H 7.845244 -6.192978 1.438242
H 5.596044 -7.177078 1.242242
H 3.144244 -6.859378 0.806342
H 1.621644 -3.196678 -0.337758
H 3.871344 -2.103378 -0.134258
C 6.687844 0.611322 0.378942
C 7.930444 1.166522 0.773242
C 8.090844 2.520022 0.830642
C 7.028644 3.391422 0.503142
C 7.147644 4.793322 0.595342
C 6.097944 5.610822 0.288142
C 4.864044 5.071922 -0.145158
C 4.728744 3.705422 -0.251258
C 5.790244 2.839222 0.077942
C 5.644844 1.440222 0.021742
H 8.741944 0.503822 1.034442
H 9.035344 2.944922 1.138342
H 8.086544 5.213622 0.924942
H 6.204044 6.678522 0.401342
H 3.813544 3.268222 -0.618358
H 4.702044 1.019322 -0.291558
C 3.750044 5.973022 -0.469158
C 3.962444 7.229522 -1.047158
C 2.883744 8.055222 -1.315058
C 1.606044 7.610122 -1.022058
N 1.398044 6.404822 -0.488158
C 2.428944 5.608922 -0.208158
H 4.961944 7.547922 -1.298258
H 3.032444 9.028722 -1.753558
H 0.726744 8.221722 -1.213258
H 2.187044 4.656222 0.258842
C 0.427644 -0.951678 6.489842
C 0.505044 -2.144178 6.302942
C 0.662344 -3.523178 6.066442
C 0.992244 -4.384078 7.098942
C 1.211144 -5.745978 6.862142
C 1.122844 -6.264878 5.596142
C 0.782244 -5.421878 4.516742
C 0.697044 -5.889278 3.192142
N 0.362744 -5.111178 2.184442
C 0.071044 -3.804278 2.400842
C 0.151844 -3.245078 3.644442
C 0.526644 -4.039678 4.746742
H 1.087544 -3.995478 8.101642
H 1.463644 -6.386278 7.693442
H 1.309744 -7.311478 5.416142
H 0.916044 -6.930578 2.966242
H -0.228456 -3.235878 1.522742
H -0.066556 -2.201278 3.803242
C 0.404244 0.443022 6.692842
C 0.819644 0.969822 7.940842
C 0.875344 2.319222 8.132742
C 0.524644 3.214622 7.098342
C 0.614144 4.613622 7.249342
C 0.283244 5.454922 6.226042
C -0.172456 4.944122 4.988242
C -0.275656 3.580922 4.821842
C 0.077644 2.690622 5.855242
C 0.024244 1.295322 5.677042
H 1.098544 0.288822 8.731142
H 1.199544 2.722622 9.081242
H 0.960544 5.012422 8.191542
H 0.394544 6.520222 6.355642
H -0.659256 3.164322 3.903642
H -0.306056 0.896022 4.730742
C -0.523356 5.870422 3.903442
C -1.102856 7.118222 4.158342
C -1.398156 7.968122 3.105942
C -1.130656 7.555322 1.811742
N -0.594856 6.358522 1.563542
C -0.288556 5.539722 2.568642
H -1.333956 7.411222 5.170342
H -1.838156 8.935322 3.287342
H -1.343856 8.186722 0.951642
H 0.177944 4.595822 2.293942
C -6.516756 0.794522 -0.354058
C -6.361256 1.993122 -0.401958
C -6.161556 3.381322 -0.525058
C -7.218556 4.223522 -0.824458
C -7.018556 5.596222 -1.009758
C -5.765556 6.145222 -0.917958
C -4.662056 5.321822 -0.607758
C -3.349156 5.821022 -0.521058
N -2.319056 5.060822 -0.214758
C -2.499456 3.741722 0.044842
C -3.728956 3.152922 -0.040758
C -4.854456 3.928122 -0.386258
H -8.211656 3.811822 -0.921958
H -7.868056 6.221222 -1.238858
H -5.613956 7.200722 -1.078958
H -3.151856 6.873022 -0.714758
H -1.604656 3.188722 0.322642
H -3.859156 2.100022 0.151742
C -6.683556 -0.605078 -0.365758
C -7.920956 -1.153178 -0.785558
C -8.078256 -2.505178 -0.875558
C -7.018156 -3.382178 -0.556358
C -7.133656 -4.781778 -0.681958
C -6.086256 -5.604578 -0.380858
C -4.858556 -5.073878 0.079242
C -4.726656 -3.709878 0.217242
C -5.785556 -2.837878 -0.104858
C -5.643056 -1.440278 -0.015858
H -8.730756 -0.485878 -1.040458
H -9.018656 -2.924478 -1.203158
H -8.067956 -5.195778 -1.031858
H -6.189256 -6.669578 -0.519458
H -3.816456 -3.279778 0.604942
H -4.704656 -1.025278 0.317742
C -3.747556 -5.980478 0.397942
C -3.965856 -7.249078 0.946542
C -2.889756 -8.078878 1.212042
C -1.608756 -7.625878 0.946242
N -1.395456 -6.409578 0.440142
C -2.423656 -5.609378 0.162442
H -4.968256 -7.573978 1.177042
H -3.042856 -9.061478 1.628042
H -0.731056 -8.240078 1.136942
H -2.176756 -4.646878 -0.281158
C -0.468556 0.944122 -6.493658
C -0.571756 2.134222 -6.303758
C -0.756256 3.509122 -6.063458
C -1.128956 4.361622 -7.088358
C -1.372856 5.718522 -6.846958
C -1.265956 6.240522 -5.583658
C -0.881656 5.406222 -4.512158
C -0.774056 5.877122 -3.190558
N -0.400156 5.107222 -2.190358
C -0.088456 3.805922 -2.412258
C -0.186456 3.243822 -3.653358
C -0.602356 4.029422 -4.747258
H -1.238556 3.970222 -8.088458
H -1.658956 6.352222 -7.672258
H -1.471256 7.283022 -5.399858
H -1.008256 6.914122 -2.960258
H 0.241844 3.244622 -1.540758
H 0.049444 2.204522 -3.816458
C -0.412956 -0.449178 -6.699558
C -0.800756 -0.982278 -7.953758
C -0.823656 -2.332078 -8.149158
C -0.466256 -3.221778 -7.112158
C -0.522456 -4.622178 -7.267058
C -0.186856 -5.458178 -6.240958
C 0.240344 -4.940278 -4.995958
C 0.311444 -3.575478 -4.825758
C -0.047356 -2.690978 -5.862258
C -0.026956 -1.295178 -5.680758
H -1.084856 -0.305878 -8.746158
H -1.126456 -2.740478 -9.102558
H -0.847156 -5.026478 -8.214658
H -0.272856 -6.525378 -6.374158
H 0.673144 -3.152478 -3.901658
H 0.281544 -0.890878 -4.729258
C 0.595044 -5.861078 -3.907658
C 1.203644 -7.096278 -4.156058
C 1.499944 -7.942278 -3.100758
C 1.204444 -7.537778 -1.810158
N 0.641344 -6.352478 -1.567858
C 0.333844 -5.537778 -2.576058
H 1.455944 -7.382478 -5.164958
H 1.962144 -8.900078 -3.277258
H 1.417244 -8.166578 -0.948158
H -0.155856 -4.604178 -2.306658
C -1.222191 0.554216 0.000000
C -1.362861 -0.837174 0.000000
C -0.229401 -1.655884 0.000000
C 1.046689 -1.083774 0.000000
C 1.190529 0.308066 0.000000
C 0.052939 1.132576 0.000000
O 0.174009 2.475706 0.000000
H -2.102991 1.183726 0.000000
H -2.350161 -1.280504 0.000000
H -0.340161 -2.732574 0.000000
H 1.923189 -1.719064 0.000000
H 2.181849 0.743956 0.000000
H 1.038559 2.910726 0.000000
