
     RDKit          3D

  0  0  0  0  0  0  0  0  0  0999 V3000
M  V30 BEGIN CTAB
M  V30 COUNTS 110 112 0 0 0
M  V30 BEGIN ATOM
M  V30 1 C -1.1086 -0.8073 4.1917 0
M  V30 2 C 0.1072 -0.0873 4.6528 0
M  V30 3 C 1.3337 -0.8195 4.1917 0
M  V30 4 C 0.0893 1.3066 4.1917 0
M  V30 5 H -1.3058 -0.9728 3.1463 0
M  V30 6 H 0.1276 -0.0739 5.7636 0
M  V30 7 H 1.4827 -0.9575 3.1154 0
M  V30 8 H 0.8744 2.0203 4.4089 0
M  V30 9 C -3.8396 -1.8904 -0.0860 0
M  V30 10 C -3.8003 -1.8858 -1.5719 0
M  V30 11 C -3.8466 -0.4721 -2.0744 0
M  V30 12 C -2.6191 -2.6080 -2.0606 0
M  V30 13 H -3.0815 -1.4011 0.5015 0
M  V30 14 H -4.6995 -2.4065 -1.9650 0
M  V30 15 H -3.0475 0.2132 -1.7722 0
M  V30 16 H -2.3844 -2.7330 -3.1105 0
M  V30 17 C 3.3430 -2.3834 0.0167 0
M  V30 18 C 3.3194 -2.3517 -1.4691 0
M  V30 19 C 2.1183 -3.0986 -1.9717 0
M  V30 20 C 3.3543 -0.9676 -1.9579 0
M  V30 21 H 2.5403 -1.9715 0.6042 0
M  V30 22 H 4.2200 -2.8701 -1.8623 0
M  V30 23 H 1.1252 -2.7492 -1.6695 0
M  V30 24 H 3.3451 -0.7018 -3.0078 0
M  V30 25 C 0.0481 4.4389 0.0150 0
M  V30 26 C 0.0324 4.4027 -1.4708 0
M  V30 27 C 1.2798 3.7359 -1.9734 0
M  V30 28 C -1.1837 3.7408 -1.9596 0
M  V30 29 H 0.0927 3.5378 0.6025 0
M  V30 30 H 0.0310 5.4418 -1.8640 0
M  V30 31 H 1.4738 2.7012 -1.6712 0
M  V30 32 H -1.4093 3.6000 -3.0095 0
M  V30 33 N -2.4843 -1.5923 3.8458 0
M  V30 34 C -3.8716 -1.9659 3.8688 0
M  V30 35 C -4.1955 -2.9425 2.7419 0
M  V30 36 N -3.9473 -2.4370 1.4567 0
M  V30 37 H -4.5142 -1.0646 3.7918 0
M  V30 38 H -4.0450 -2.5176 4.8178 0
M  V30 39 H -3.5053 -3.8177 2.9151 0
M  V30 40 H -5.2368 -3.2862 2.8479 0
M  V30 41 N 2.7390 -1.4961 3.8384 0
M  V30 42 C 3.7559 -2.5110 3.8613 0
M  V30 43 C 4.7637 -2.3033 2.7346 0
M  V30 44 N 4.2020 -2.3408 1.4493 0
M  V30 45 H 3.2965 -3.5181 3.7842 0
M  V30 46 H 4.3204 -2.3855 4.8104 0
M  V30 47 H 5.1768 -1.2680 2.9079 0
M  V30 48 H 5.5819 -3.0333 2.8405 0
M  V30 49 N 0.3803 3.1239 3.8670 0
M  V30 50 C 0.7489 4.5126 3.8903 0
M  V30 51 C 0.0651 5.2806 2.7628 0
M  V30 52 N 0.3803 4.8133 1.4779 0
M  V30 53 H 1.8507 4.6197 3.8142 0
M  V30 54 H 0.3565 4.9381 4.8390 0
M  V30 55 H -1.0379 5.1192 2.9351 0
M  V30 56 H 0.2867 6.3545 2.8690 0
M  V30 57 N -2.0408 -4.0164 -2.6311 0
M  V30 58 C -1.2581 -4.7406 -3.5942 0
M  V30 59 C 0.1058 -5.1158 -3.0221 0
M  V30 60 N 0.8852 -4.0164 -2.6311 0
M  V30 61 H -1.1341 -4.1402 -4.5191 0
M  V30 62 H -1.7870 -5.6981 -3.7904 0
M  V30 63 H -0.1280 -5.7260 -2.1027 0
M  V30 64 H 0.6392 -5.7539 -3.7445 0
M  V30 65 N -4.0595 0.7406 -2.8823 0
M  V30 66 C -4.6646 1.9938 -3.2403 0
M  V30 67 C -3.6254 2.9687 -3.7861 0
M  V30 68 N -2.5965 3.2746 -2.8823 0
M  V30 69 H -5.1821 2.4357 -2.3638 0
M  V30 70 H -5.3681 1.7892 -4.0760 0
M  V30 71 H -3.1703 2.4360 -4.6701 0
M  V30 72 H -4.1338 3.8781 -4.1440 0
M  V30 73 N 4.2644 0.6109 -2.3470 0
M  V30 74 C 4.5002 1.6508 -3.3101 0
M  V30 75 C 4.1431 3.0196 -2.7380 0
M  V30 76 N 2.8014 3.1449 -2.3470 0
M  V30 77 H 3.9183 1.4580 -4.2350 0
M  V30 78 H 5.5939 1.6715 -3.5063 0
M  V30 79 H 4.7885 3.1222 -1.8186 0
M  V30 80 H 4.4291 3.8006 -3.4604 0
M  V30 81 C 0.2342 0.4704 -1.8105 0
M  V30 82 C -0.7372 1.2182 -2.4295 0
M  V30 83 C -1.8572 0.5510 -2.9103 0
M  V30 84 C -1.9698 -0.8342 -2.7580 0
M  V30 85 C -0.9840 -1.5709 -2.1332 0
M  V30 86 C 0.1158 -0.8839 -1.6659 0
M  V30 87 H 1.1339 0.9529 -1.4161 0
M  V30 88 H -0.6652 2.2844 -2.5544 0
M  V30 89 H -2.6576 1.0797 -3.4070 0
M  V30 90 H -2.8605 -1.3379 -3.1445 0
M  V30 91 H -1.0761 -2.6550 -2.0161 0
M  V30 92 H 0.9054 -1.4329 -1.1718 0
M  V30 93 C 3.9454 0.2550 -0.0557 0
M  V30 94 C 4.2410 0.0192 1.4053 0
M  V30 95 C 5.7073 0.0067 1.7116 0
M  V30 96 C 6.2881 1.3399 1.2840 0
M  V30 97 C 6.1196 1.3995 -0.2387 0
M  V30 98 C 4.6179 1.5487 -0.4745 0
M  V30 99 H 2.8330 0.4390 -0.1174 0
M  V30 100 H 4.2150 -0.5925 -0.6990 0
M  V30 101 H 3.7491 -0.9268 1.6882 0
M  V30 102 H 3.7631 0.8630 1.9618 0
M  V30 103 H 6.2342 -0.7767 1.1484 0
M  V30 104 H 5.8375 -0.2026 2.7788 0
M  V30 105 H 5.6964 2.2010 1.6845 0
M  V30 106 H 7.3654 1.4257 1.5217 0
M  V30 107 H 6.7019 2.2005 -0.6916 0
M  V30 108 H 6.4072 0.4083 -0.6269 0
M  V30 109 H 4.3983 1.8380 -1.5056 0
M  V30 110 H 4.2627 2.3230 0.2567 0
M  V30 END ATOM
M  V30 BEGIN BOND
M  V30 1 1 1 2
M  V30 2 1 2 3
M  V30 3 1 2 4
M  V30 4 1 1 5
M  V30 5 1 2 6
M  V30 6 1 3 7
M  V30 7 1 4 8
M  V30 8 1 9 10
M  V30 9 1 10 11
M  V30 10 1 10 12
M  V30 11 1 9 13
M  V30 12 1 10 14
M  V30 13 1 11 15
M  V30 14 1 12 16
M  V30 15 1 17 18
M  V30 16 1 18 19
M  V30 17 1 18 20
M  V30 18 1 17 21
M  V30 19 1 18 22
M  V30 20 1 19 23
M  V30 21 1 20 24
M  V30 22 1 25 26
M  V30 23 1 26 27
M  V30 24 1 26 28
M  V30 25 1 25 29
M  V30 26 1 26 30
M  V30 27 1 27 31
M  V30 28 1 28 32
M  V30 29 1 33 34
M  V30 30 1 34 35
M  V30 31 1 35 36
M  V30 32 1 34 37
M  V30 33 1 34 38
M  V30 34 1 35 39
M  V30 35 1 35 40
M  V30 36 1 41 42
M  V30 37 1 42 43
M  V30 38 1 43 44
M  V30 39 1 42 45
M  V30 40 1 42 46
M  V30 41 1 43 47
M  V30 42 1 43 48
M  V30 43 1 49 50
M  V30 44 1 50 51
M  V30 45 1 51 52
M  V30 46 1 50 53
M  V30 47 1 50 54
M  V30 48 1 51 55
M  V30 49 1 51 56
M  V30 50 1 57 58
M  V30 51 1 58 59
M  V30 52 1 59 60
M  V30 53 1 58 61
M  V30 54 1 58 62
M  V30 55 1 59 63
M  V30 56 1 59 64
M  V30 57 1 65 66
M  V30 58 1 66 67
M  V30 59 1 67 68
M  V30 60 1 66 69
M  V30 61 1 66 70
M  V30 62 1 67 71
M  V30 63 1 67 72
M  V30 64 1 73 74
M  V30 65 1 74 75
M  V30 66 1 75 76
M  V30 67 1 74 77
M  V30 68 1 74 78
M  V30 69 1 75 79
M  V30 70 1 75 80
M  V30 71 2 1 33
M  V30 72 2 9 36
M  V30 73 2 3 41
M  V30 74 2 17 44
M  V30 75 2 4 49
M  V30 76 2 25 52
M  V30 77 2 12 57
M  V30 78 2 19 60
M  V30 79 2 11 65
M  V30 80 2 28 68
M  V30 81 2 20 73
M  V30 82 2 27 76
M  V30 83 2 81 82
M  V30 84 1 82 83
M  V30 85 2 83 84
M  V30 86 1 84 85
M  V30 87 2 85 86
M  V30 88 1 86 81
M  V30 89 1 81 87
M  V30 90 1 82 88
M  V30 91 1 83 89
M  V30 92 1 84 90
M  V30 93 1 85 91
M  V30 94 1 86 92
M  V30 95 1 93 94
M  V30 96 1 94 95
M  V30 97 1 95 96
M  V30 98 1 96 97
M  V30 99 1 97 98
M  V30 100 1 98 93
M  V30 101 1 93 99
M  V30 102 1 93 100
M  V30 103 1 94 101
M  V30 104 1 94 102
M  V30 105 1 95 103
M  V30 106 1 95 104
M  V30 107 1 96 105
M  V30 108 1 96 106
M  V30 109 1 97 107
M  V30 110 1 97 108
M  V30 111 1 98 109
M  V30 112 1 98 110
M  V30 END BOND
M  V30 END CTAB
M  END

$$$$
