
     RDKit          3D

  0  0  0  0  0  0  0  0  0  0999 V3000
M  V30 BEGIN CTAB
M  V30 COUNTS 18 18 0 0 0
M  V30 BEGIN ATOM
M  V30 1 C 0.7731 0.8146 0.8568 0
M  V30 2 C 0.4380 -0.6335 1.1182 0
M  V30 3 C -0.7749 -1.0979 0.3718 0
M  V30 4 C -0.5223 -0.8937 -1.1088 0
M  V30 5 C -0.3928 0.6214 -1.3050 0
M  V30 6 C 0.9279 1.0045 -0.6402 0
M  V30 7 H 1.7958 0.9784 1.3069 0
M  V30 8 H 0.0573 1.5168 1.3033 0
M  V30 9 H 0.3243 -0.7493 2.2094 0
M  V30 10 H 1.3218 -1.2264 0.7756 0
M  V30 11 H -1.6657 -0.5108 0.6369 0
M  V30 12 H -0.9695 -2.1418 0.6402 0
M  V30 13 H 0.4610 -1.3218 -1.4278 0
M  V30 14 H -1.3600 -1.2583 -1.7331 0
M  V30 15 H -0.4400 0.9116 -2.3535 0
M  V30 16 H -1.1967 1.0863 -0.7104 0
M  V30 17 H 1.2423 2.0136 -0.9196 0
M  V30 18 H 1.6761 0.2334 -0.9657 0
M  V30 END ATOM
M  V30 BEGIN BOND
M  V30 1 1 1 2
M  V30 2 1 2 3
M  V30 3 1 3 4
M  V30 4 1 4 5
M  V30 5 1 5 6
M  V30 6 1 6 1
M  V30 7 1 1 7
M  V30 8 1 1 8
M  V30 9 1 2 9
M  V30 10 1 2 10
M  V30 11 1 3 11
M  V30 12 1 3 12
M  V30 13 1 4 13
M  V30 14 1 4 14
M  V30 15 1 5 15
M  V30 16 1 5 16
M  V30 17 1 6 17
M  V30 18 1 6 18
M  V30 END BOND
M  V30 END CTAB
M  END

$$$$
