
     RDKit          3D

  0  0  0  0  0  0  0  0  0  0999 V3000
M  V30 BEGIN CTAB
M  V30 COUNTS 18 18 0 0 0
M  V30 BEGIN ATOM
M  V30 1 C 1.0042 0.3887 0.6213 0
M  V30 2 C 1.0365 -1.0161 0.0709 0
M  V30 3 C -0.3283 -1.5693 -0.2031 0
M  V30 4 C -1.0175 -0.6512 -1.1929 0
M  V30 5 C -1.1833 0.6913 -0.4712 0
M  V30 6 C 0.2283 1.2614 -0.3470 0
M  V30 7 H 2.0727 0.7532 0.5937 0
M  V30 8 H 0.6212 0.4476 1.6482 0
M  V30 9 H 1.5990 -1.6347 0.7906 0
M  V30 10 H 1.6043 -0.9628 -0.8908 0
M  V30 11 H -0.9467 -1.5961 0.7054 0
M  V30 12 H -0.2202 -2.5973 -0.5654 0
M  V30 13 H -0.3728 -0.4357 -2.0816 0
M  V30 14 H -2.0197 -1.0204 -1.4824 0
M  V30 15 H -1.8676 1.3615 -0.9894 0
M  V30 16 H -1.5257 0.4598 0.5511 0
M  V30 17 H 0.2134 2.3171 -0.0636 0
M  V30 18 H 0.7155 1.1085 -1.3468 0
M  V30 END ATOM
M  V30 BEGIN BOND
M  V30 1 1 1 2
M  V30 2 1 2 3
M  V30 3 1 3 4
M  V30 4 1 4 5
M  V30 5 1 5 6
M  V30 6 1 6 1
M  V30 7 1 1 7
M  V30 8 1 1 8
M  V30 9 1 2 9
M  V30 10 1 2 10
M  V30 11 1 3 11
M  V30 12 1 3 12
M  V30 13 1 4 13
M  V30 14 1 4 14
M  V30 15 1 5 15
M  V30 16 1 5 16
M  V30 17 1 6 17
M  V30 18 1 6 18
M  V30 END BOND
M  V30 END CTAB
M  END

$$$$
